[OPTIONS]
FLOW_UNITS CFS
INFILTRATION HORTON
FLOW_ROUTING DYNWAVE

[JUNCTIONS]
;;Name Elev MaxDepth InitDepth SurDepth Aponded
IN_1 421.140 10 0 0 0
IN_10 413.130 10 0 0 0
IN_100 394.560 10 0 0 0
IN_100_1 392.850 10 0 0 0
IN_101 392.850 10 0 0 0
IN_103 395.720 10 0 0 0
IN_104 395.720 10 0 0 0
IN_105 395.680 10 0 0 0
IN_107 391.040 10 0 0 0
IN_108 391.040 10 0 0 0
IN_109 387.060 10 0 0 0
IN_11 413.880 10 0 0 0
IN_110_1 392.230 10 0 0 0
IN_111 385.110 10 0 0 0
IN_112_1 386.690 10 0 0 0
IN_112_2 385.750 10 0 0 0
IN_113 385.750 10 0 0 0
IN_114 379.920 10 0 0 0
IN_115 379.920 10 0 0 0
IN_116_1 379.740 10 0 0 0
IN_12 414.700 10 0 0 0
IN_13 414.700 10 0 0 0
IN_131 381.700 10 0 0 0
IN_132 381.700 10 0 0 0
IN_133 387.540 10 0 0 0
IN_134 387.540 10 0 0 0
IN_135 386.670 10 0 0 0
IN_136 386.640 10 0 0 0
IN_143 383.590 10 0 0 0
IN_144 383.590 10 0 0 0
IN_145 383.590 10 0 0 0
IN_146 385.140 10 0 0 0
IN_147 380.090 10 0 0 0
IN_148 395.960 10 0 0 0
IN_149 395.960 10 0 0 0
IN_15 409.240 10 0 0 0
IN_150 393.860 10 0 0 0
IN_151 390.800 10 0 0 0
IN_152 387.140 10 0 0 0
IN_153 386.910 10 0 0 0
IN_154 386.910 10 0 0 0
IN_155 383.070 10 0 0 0
IN_156 383.070 10 0 0 0
IN_157 381.700 10 0 0 0
IN_158 381.700 10 0 0 0
IN_159 378.820 10 0 0 0
IN_16 412.700 10 0 0 0
IN_160 378.730 10 0 0 0
IN_161 377.360 10 0 0 0
IN_163 382.480 10 0 0 0
IN_167 384.510 10 0 0 0
IN_168 384.510 10 0 0 0
IN_169 384.150 10 0 0 0
IN_17 411.890 10 0 0 0
IN_170 384.150 10 0 0 0
IN_171 383.820 10 0 0 0
IN_172 383.410 10 0 0 0
IN_173 383.410 10 0 0 0
IN_174 386.500 10 0 0 0
IN_175 382.180 10 0 0 0
IN_176 382.180 10 0 0 0
IN_177 381.670 10 0 0 0
IN_178 388.250 10 0 0 0
IN_179 385.890 10 0 0 0
IN_18 409.890 10 0 0 0
IN_180 386.830 10 0 0 0
IN_181 386.230 10 0 0 0
IN_182 381.770 10 0 0 0
IN_183 380.600 10 0 0 0
IN_184 380.600 10 0 0 0
IN_185 380.770 10 0 0 0
IN_186 380.770 10 0 0 0
IN_187 380.770 10 0 0 0
IN_188 380.500 10 0 0 0
IN_189 380.030 10 0 0 0
IN_19 410.630 10 0 0 0
IN_190 380.030 10 0 0 0
IN_191 379.970 10 0 0 0
IN_192 378.190 10 0 0 0
IN_193 378.190 10 0 0 0
IN_2 421.140 10 0 0 0
IN_20 410.630 10 0 0 0
IN_21 409.550 10 0 0 0
IN_22 409.550 10 0 0 0
IN_23 407.790 10 0 0 0
IN_24 407.790 10 0 0 0
IN_25 406.210 10 0 0 0
IN_26 405.550 10 0 0 0
IN_27 405.550 10 0 0 0
IN_28 405.370 10 0 0 0
IN_29 405.370 10 0 0 0
IN_3 420.370 10 0 0 0
IN_30 404.080 10 0 0 0
IN_30_1 407.340 10 0 0 0
IN_31 407.960 10 0 0 0
IN_32 406.760 10 0 0 0
IN_33 403.860 10 0 0 0
IN_34 403.990 10 0 0 0
IN_35 405.180 10 0 0 0
IN_36 405.180 10 0 0 0
IN_37 404.770 10 0 0 0
IN_38 402.390 10 0 0 0
IN_40 400.890 10 0 0 0
IN_41 400.890 10 0 0 0
IN_42 402.610 10 0 0 0
IN_43 400.010 10 0 0 0
IN_43_1 400.010 10 0 0 0
IN_44 408.270 10 0 0 0
IN_45 406.130 10 0 0 0
IN_46 405.030 10 0 0 0
IN_47 404.660 10 0 0 0
IN_48 401.540 10 0 0 0
IN_49 401.540 10 0 0 0
IN_5 418.970 10 0 0 0
IN_50 398.880 10 0 0 0
IN_51 400.160 10 0 0 0
IN_52 397.800 10 0 0 0
IN_52_1 397.800 10 0 0 0
IN_53 397.800 10 0 0 0
IN_54 396.630 10 0 0 0
IN_55 396.630 10 0 0 0
IN_57 396.440 10 0 0 0
IN_60 396.960 10 0 0 0
IN_61 396.960 10 0 0 0
IN_62 392.740 10 0 0 0
IN_63 392.740 10 0 0 0
IN_66 365.300 10 0 0 0
IN_67 365.300 10 0 0 0
IN_76 389.480 10 0 0 0
IN_76_2 389.480 10 0 0 0
IN_76_41 387.760 10 0 0 0
IN_76_42 387.760 10 0 0 0
IN_77_3 389.880 10 0 0 0
IN_79 377.990 10 0 0 0
IN_8 417.280 10 0 0 0
IN_80 377.990 10 0 0 0
IN_81 377.990 10 0 0 0
IN_82 384.320 10 0 0 0
IN_83 405.240 10 0 0 0
IN_85 401.760 10 0 0 0
IN_86 401.760 10 0 0 0
IN_87 398.110 10 0 0 0
IN_88 398.110 10 0 0 0
IN_9 415.900 10 0 0 0
IN_90 396.620 10 0 0 0
IN_91 396.620 10 0 0 0
IN_92 393.440 10 0 0 0
IN_93 393.440 10 0 0 0
IN_94 393.440 10 0 0 0
IN_97 399.840 10 0 0 0
IN_98 398.600 10 0 0 0
IN_99 398.600 10 0 0 0
J_1 421.130 10 0 0 0
J_100 379.400 10 0 0 0
J_11 409.230 10 0 0 0
J_111 381.690 10 0 0 0
J_112 387.530 10 0 0 0
J_113 386.660 10 0 0 0
J_113_1 386.630 10 0 0 0
J_115 386.290 10 0 0 0
J_117 382.190 10 0 0 0
J_118 383.580 10 0 0 0
J_119 381.330 10 0 0 0
J_12 412.690 10 0 0 0
J_120 385.130 10 0 0 0
J_121 380.080 10 0 0 0
J_122 395.950 10 0 0 0
J_123 393.850 10 0 0 0
J_124 390.790 10 0 0 0
J_125 387.130 10 0 0 0
J_126 386.900 10 0 0 0
J_127 386.380 10 0 0 0
J_128 383.060 10 0 0 0
J_129 381.690 10 0 0 0
J_13 411.880 10 0 0 0
J_130 380.020 10 0 0 0
J_131 378.810 10 0 0 0
J_132 379.000 10 0 0 0
J_132_1 378.720 10 0 0 0
J_133 377.450 10 0 0 0
J_134_1 377.350 10 0 0 0
J_135 382.470 10 0 0 0
J_138 384.500 10 0 0 0
J_139 384.140 10 0 0 0
J_14 409.880 10 0 0 0
J_140 383.810 10 0 0 0
J_141 383.400 10 0 0 0
J_142 386.490 10 0 0 0
J_143 382.100 10 0 0 0
J_144 382.170 10 0 0 0
J_145 381.660 10 0 0 0
J_146 388.240 10 0 0 0
J_147 385.880 10 0 0 0
J_148 386.820 10 0 0 0
J_149 386.220 10 0 0 0
J_15 408.830 10 0 0 0
J_150 381.760 10 0 0 0
J_151 380.590 10 0 0 0
J_152 380.760 10 0 0 0
J_153 380.490 10 0 0 0
J_153_1 380.570 10 0 0 0
J_154 380.020 10 0 0 0
J_155 379.960 10 0 0 0
J_156 378.180 10 0 0 0
J_16 410.620 10 0 0 0
J_17 409.540 10 0 0 0
J_18 408.280 10 0 0 0
J_19 407.780 10 0 0 0
J_2 420.360 10 0 0 0
J_20 407.230 10 0 0 0
J_21 406.200 10 0 0 0
J_22 405.540 10 0 0 0
J_23 405.190 10 0 0 0
J_24 405.360 10 0 0 0
J_25 404.880 10 0 0 0
J_26 404.070 10 0 0 0
J_26_1 407.330 10 0 0 0
J_27 407.950 10 0 0 0
J_27_1 406.750 10 0 0 0
J_28 403.850 10 0 0 0
J_29 403.040 10 0 0 0
J_3 418.960 10 0 0 0
J_30 403.980 10 0 0 0
J_31 402.240 10 0 0 0
J_32 405.170 10 0 0 0
J_33 404.760 10 0 0 0
J_34 404.560 10 0 0 0
J_35 402.380 10 0 0 0
J_37 400.830 10 0 0 0
J_38 400.880 10 0 0 0
J_39 400.670 10 0 0 0
J_40 402.600 10 0 0 0
J_41 400.000 10 0 0 0
J_42 400.170 10 0 0 0
J_43 408.260 10 0 0 0
J_44 406.120 10 0 0 0
J_45 405.020 10 0 0 0
J_46 404.650 10 0 0 0
J_47 401.530 10 0 0 0
J_48 401.260 10 0 0 0
J_49 398.870 10 0 0 0
J_5 417.270 10 0 0 0
J_50 400.150 10 0 0 0
J_51 398.970 10 0 0 0
J_52 397.790 10 0 0 0
J_53 397.760 10 0 0 0
J_54 396.620 10 0 0 0
J_57 396.430 10 0 0 0
J_6 415.890 10 0 0 0
J_61 396.950 10 0 0 0
J_62 393.940 10 0 0 0
J_63 392.730 10 0 0 0
J_65 365.290 10 0 0 0
J_69 387.180 10 0 0 0
J_6_1 413.120 10 0 0 0
J_7 413.870 10 0 0 0
J_70 389.470 10 0 0 0
J_70_2 388.970 10 0 0 0
J_70_3 387.750 10 0 0 0
J_71 384.580 10 0 0 0
J_71_5 389.870 10 0 0 0
J_71_7 384.880 10 0 0 0
J_71_8 384.820 10 0 0 0
J_72 380.420 10 0 0 0
J_74 379.610 10 0 0 0
J_75 377.980 10 0 0 0
J_76 384.310 10 0 0 0
J_77 377.580 10 0 0 0
J_78 405.230 10 0 0 0
J_79 401.750 10 0 0 0
J_7_1 413.100 10 0 0 0
J_8 414.690 10 0 0 0
J_80 401.140 10 0 0 0
J_81 398.100 10 0 0 0
J_82 396.610 10 0 0 0
J_83 393.430 10 0 0 0
J_83_1 393.430 10 0 0 0
J_85 399.830 10 0 0 0
J_86 398.590 10 0 0 0
J_87 396.930 10 0 0 0
J_88 394.550 10 0 0 0
J_88_1 392.840 10 0 0 0
J_9 413.120 10 0 0 0
J_90 395.710 10 0 0 0
J_90_1 395.670 10 0 0 0
J_92 394.960 10 0 0 0
J_93 391.030 10 0 0 0
J_94 387.050 10 0 0 0
J_94_1 388.910 10 0 0 0
J_94_2 392.220 10 0 0 0
J_94_4 388.170 10 0 0 0
J_95 385.100 10 0 0 0
J_95_15 386.680 10 0 0 0
J_95_2 385.740 10 0 0 0
J_95_3 382.390 10 0 0 0
J_95_4 380.180 10 0 0 0
J_96 379.910 10 0 0 0
J_98 379.730 10 0 0 0
IN_1 421.140 6.470 0 0 0
IN_10 413.130 8.330 0 0 0
IN_100 394.560 3.440 0 0 0
IN_100_1 392.850 8.650 0 0 0
IN_101 392.850 8.650 0 0 0
IN_103 395.720 5.920 0 0 0
IN_104 395.720 5.920 0 0 0
IN_105 395.680 6.200 0 0 0
IN_107 391.040 5.760 0 0 0
IN_108 391.040 5.760 0 0 0
IN_109 387.060 9.740 0 0 0
IN_11 413.880 7.970 0 0 0
IN_110_1 392.230 6.110 0 0 0
IN_111 385.110 12.890 0 0 0
IN_112_1 386.690 7.310 0 0 0
IN_112_2 385.750 8.090 0 0 0
IN_113 385.750 8.090 0 0 0
IN_114 379.920 10.140 0 0 0
IN_115 379.920 10.140 0 0 0
IN_116_1 379.740 10.460 0 0 0
IN_12 414.700 7.300 0 0 0
IN_13 414.700 7.300 0 0 0
IN_131 381.700 15.200 0 0 0
IN_132 381.700 15.200 0 0 0
IN_133 387.540 7.030 0 0 0
IN_134 387.540 7.030 0 0 0
IN_135 386.670 6.830 0 0 0
IN_136 386.640 6.840 0 0 0
IN_143 383.590 10.060 0 0 0
IN_144 383.590 10.060 0 0 0
IN_145 383.590 10.060 0 0 0
IN_146 385.140 7.010 0 0 0
IN_147 380.090 12.710 0 0 0
IN_148 395.960 6.070 0 0 0
IN_149 395.960 6.070 0 0 0
IN_15 409.240 8.360 0 0 0
IN_150 393.860 7.650 0 0 0
IN_151 390.800 9.640 0 0 0
IN_152 387.140 7.570 0 0 0
IN_153 386.910 7.580 0 0 0
IN_154 386.910 7.580 0 0 0
IN_155 383.070 9.860 0 0 0
IN_156 383.070 9.860 0 0 0
IN_157 381.700 9.900 0 0 0
IN_158 381.700 9.900 0 0 0
IN_159 378.820 12.100 0 0 0
IN_16 412.700 7.080 0 0 0
IN_160 378.730 10.090 0 0 0
IN_161 377.360 9.640 0 0 0
IN_163 382.480 7.640 0 0 0
IN_167 384.510 7.550 0 0 0
IN_168 384.510 7.550 0 0 0
IN_169 384.150 6.770 0 0 0
IN_17 411.890 6.480 0 0 0
IN_170 384.150 6.770 0 0 0
IN_171 383.820 6.710 0 0 0
IN_172 383.410 6.290 0 0 0
IN_173 383.410 6.290 0 0 0
IN_174 386.500 6.000 0 0 0
IN_175 382.180 5.870 0 0 0
IN_176 382.180 5.870 0 0 0
IN_177 381.670 6.890 0 0 0
IN_178 388.250 5.820 0 0 0
IN_179 385.890 8.180 0 0 0
IN_18 409.890 7.720 0 0 0
IN_180 386.830 6.440 0 0 0
IN_181 386.230 7.610 0 0 0
IN_182 381.770 7.250 0 0 0
IN_183 380.600 7.320 0 0 0
IN_184 380.600 7.320 0 0 0
IN_185 380.770 6.380 0 0 0
IN_186 380.770 6.380 0 0 0
IN_187 380.770 6.380 0 0 0
IN_188 380.500 7.670 0 0 0
IN_189 380.030 7.530 0 0 0
IN_19 410.630 5.830 0 0 0
IN_190 380.030 7.530 0 0 0
IN_191 379.970 7.660 0 0 0
IN_192 378.190 9.000 0 0 0
IN_193 378.190 9.000 0 0 0
IN_2 421.140 6.470 0 0 0
IN_20 410.630 5.830 0 0 0
IN_21 409.550 10.010 0 0 0
IN_22 409.550 10.010 0 0 0
IN_23 407.790 6.570 0 0 0
IN_24 407.790 6.570 0 0 0
IN_25 406.210 6.890 0 0 0
IN_26 405.550 9.500 0 0 0
IN_27 405.550 9.500 0 0 0
IN_28 405.370 7.780 0 0 0
IN_29 405.370 7.780 0 0 0
IN_3 420.370 8.130 0 0 0
IN_30 404.080 9.680 0 0 0
IN_30_1 407.340 7.960 0 0 0
IN_31 407.960 6.510 0 0 0
IN_32 406.760 7.760 0 0 0
IN_33 403.860 10.310 0 0 0
IN_34 403.990 7.620 0 0 0
IN_35 405.180 7.320 0 0 0
IN_36 405.180 7.320 0 0 0
IN_37 404.770 8.240 0 0 0
IN_38 402.390 8.200 0 0 0
IN_40 400.890 8.880 0 0 0
IN_41 400.890 8.880 0 0 0
IN_42 402.610 7.180 0 0 0
IN_43 400.010 8.490 0 0 0
IN_43_1 400.010 8.490 0 0 0
IN_44 408.270 6.720 0 0 0
IN_45 406.130 6.890 0 0 0
IN_46 405.030 5.370 0 0 0
IN_47 404.660 5.970 0 0 0
IN_48 401.540 6.960 0 0 0
IN_49 401.540 6.960 0 0 0
IN_5 418.970 7.850 0 0 0
IN_50 398.880 7.920 0 0 0
IN_51 400.160 6.840 0 0 0
IN_52 397.800 8.350 0 0 0
IN_52_1 397.800 8.350 0 0 0
IN_53 397.800 8.350 0 0 0
IN_54 396.630 8.040 0 0 0
IN_55 396.630 8.040 0 0 0
IN_57 396.440 8.380 0 0 0
IN_60 396.960 7.860 0 0 0
IN_61 396.960 7.860 0 0 0
IN_62 392.740 11.950 0 0 0
IN_63 392.740 11.950 0 0 0
IN_66 365.300 39.700 0 0 0
IN_67 365.300 39.700 0 0 0
IN_76 389.480 8.890 0 0 0
IN_76_2 389.480 8.890 0 0 0
IN_76_41 387.760 9.740 0 0 0
IN_76_42 387.760 9.740 0 0 0
IN_77_3 389.880 7.890 0 0 0
IN_79 377.990 14.250 0 0 0
IN_8 417.280 6.810 0 0 0
IN_80 377.990 14.250 0 0 0
IN_81 377.990 14.250 0 0 0
IN_82 384.320 6.940 0 0 0
IN_83 405.240 6.130 0 0 0
IN_85 401.760 7.370 0 0 0
IN_86 401.760 7.370 0 0 0
IN_87 398.110 7.870 0 0 0
IN_88 398.110 7.870 0 0 0
IN_9 415.900 9.270 0 0 0
IN_90 396.620 9.520 0 0 0
IN_91 396.620 9.520 0 0 0
IN_92 393.440 9.060 0 0 0
IN_93 393.440 9.060 0 0 0
IN_94 393.440 9.310 0 0 0
IN_97 399.840 9.160 0 0 0
IN_98 398.600 6.350 0 0 0
IN_99 398.600 6.350 0 0 0
J_1 421.130 6.480 0 0 0
J_100 379.400 11.110 0 0 0
J_11 409.230 8.370 0 0 0
J_111 381.690 15.210 0 0 0
J_112 387.530 7.040 0 0 0
J_113 386.660 6.840 0 0 0
J_113_1 386.630 6.850 0 0 0
J_115 386.290 8.710 0 0 0
J_117 382.190 14.670 0 0 0
J_118 383.580 10.070 0 0 0
J_119 381.330 12.930 0 0 0
J_12 412.690 7.090 0 0 0
J_120 385.130 7.020 0 0 0
J_121 380.080 12.720 0 0 0
J_122 395.950 6.080 0 0 0
J_123 393.850 7.660 0 0 0
J_124 390.790 9.650 0 0 0
J_125 387.130 7.580 0 0 0
J_126 386.900 7.590 0 0 0
J_127 386.380 8.350 0 0 0
J_128 383.060 9.870 0 0 0
J_129 381.690 9.910 0 0 0
J_13 411.880 6.490 0 0 0
J_130 380.020 12.780 0 0 0
J_131 378.810 12.110 0 0 0
J_132 379.000 10.940 0 0 0
J_132_1 378.720 10.100 0 0 0
J_133 377.450 11.370 0 0 0
J_134_1 377.350 9.650 0 0 0
J_135 382.470 7.650 0 0 0
J_138 384.500 7.560 0 0 0
J_139 384.140 6.780 0 0 0
J_14 409.880 7.730 0 0 0
J_140 383.810 6.720 0 0 0
J_141 383.400 6.300 0 0 0
J_142 386.490 6.010 0 0 0
J_143 382.100 7.680 0 0 0
J_144 382.170 5.880 0 0 0
J_145 381.660 6.900 0 0 0
J_146 388.240 5.830 0 0 0
J_147 385.880 8.190 0 0 0
J_148 386.820 6.450 0 0 0
J_149 386.220 7.620 0 0 0
J_15 408.830 8.770 0 0 0
J_150 381.760 7.260 0 0 0
J_151 380.590 7.330 0 0 0
J_152 380.760 6.390 0 0 0
J_153 380.490 7.680 0 0 0
J_153_1 380.570 7.350 0 0 0
J_154 380.020 7.540 0 0 0
J_155 379.960 7.670 0 0 0
J_156 378.180 9.010 0 0 0
J_16 410.620 5.840 0 0 0
J_17 409.540 10.020 0 0 0
J_18 408.280 8.460 0 0 0
J_19 407.780 6.580 0 0 0
J_2 420.360 8.140 0 0 0
J_20 407.230 7.610 0 0 0
J_21 406.200 6.900 0 0 0
J_22 405.540 9.510 0 0 0
J_23 405.190 8.600 0 0 0
J_24 405.360 7.790 0 0 0
J_25 404.880 8.740 0 0 0
J_26 404.070 9.690 0 0 0
J_26_1 407.330 7.970 0 0 0
J_27 407.950 6.520 0 0 0
J_27_1 406.750 7.770 0 0 0
J_28 403.850 10.320 0 0 0
J_29 403.040 11.400 0 0 0
J_3 418.960 7.860 0 0 0
J_30 403.980 7.630 0 0 0
J_31 402.240 9.220 0 0 0
J_32 405.170 7.330 0 0 0
J_33 404.760 8.250 0 0 0
J_34 404.560 6.940 0 0 0
J_35 402.380 8.210 0 0 0
J_37 400.830 8.780 0 0 0
J_38 400.880 8.890 0 0 0
J_39 400.670 8.630 0 0 0
J_40 402.600 7.190 0 0 0
J_41 400.000 8.500 0 0 0
J_42 400.170 9.020 0 0 0
J_43 408.260 6.730 0 0 0
J_44 406.120 6.900 0 0 0
J_45 405.020 5.380 0 0 0
J_46 404.650 5.980 0 0 0
J_47 401.530 6.970 0 0 0
J_48 401.260 7.240 0 0 0
J_49 398.870 7.930 0 0 0
J_5 417.270 6.820 0 0 0
J_50 400.150 6.850 0 0 0
J_51 398.970 7.830 0 0 0
J_52 397.790 8.360 0 0 0
J_53 397.760 8.060 0 0 0
J_54 396.620 8.050 0 0 0
J_57 396.430 8.390 0 0 0
J_6 415.890 9.280 0 0 0
J_61 396.950 7.870 0 0 0
J_62 393.940 10.310 0 0 0
J_63 392.730 11.960 0 0 0
J_65 365.290 39.710 0 0 0
J_69 387.180 12.440 0 0 0
J_6_1 413.120 8.340 0 0 0
J_7 413.870 7.980 0 0 0
J_70 389.470 8.900 0 0 0
J_70_2 388.970 10.100 0 0 0
J_70_3 387.750 9.750 0 0 0
J_71 384.580 12.620 0 0 0
J_71_5 389.870 7.900 0 0 0
J_71_7 384.880 10.120 0 0 0
J_71_8 384.820 10.180 0 0 0
J_72 380.420 16.780 0 0 0
J_74 379.610 15.570 0 0 0
J_75 377.980 14.260 0 0 0
J_76 384.310 6.950 0 0 0
J_77 377.580 14.420 0 0 0
J_78 405.230 6.140 0 0 0
J_79 401.750 7.380 0 0 0
J_7_1 413.100 8.450 0 0 0
J_8 414.690 7.310 0 0 0
J_80 401.140 9.400 0 0 0
J_81 398.100 7.880 0 0 0
J_82 396.610 9.530 0 0 0
J_83 393.430 9.070 0 0 0
J_83_1 393.430 9.320 0 0 0
J_85 399.830 9.170 0 0 0
J_86 398.590 6.360 0 0 0
J_87 396.930 12.070 0 0 0
J_88 394.550 3.450 0 0 0
J_88_1 392.840 8.660 0 0 0
J_9 413.120 8.280 0 0 0
J_90 395.710 5.930 0 0 0
J_90_1 395.670 6.210 0 0 0
J_92 394.960 6.760 0 0 0
J_93 391.030 5.770 0 0 0
J_94 387.050 9.750 0 0 0
J_94_1 388.910 8.090 0 0 0
J_94_2 392.220 6.120 0 0 0
J_94_4 388.170 10.230 0 0 0
J_95 385.100 12.900 0 0 0
J_95_15 386.680 7.320 0 0 0
J_95_2 385.740 8.100 0 0 0
J_95_3 382.390 12.610 0 0 0
J_95_4 380.180 11.310 0 0 0
J_96 379.910 10.150 0 0 0
J_98 379.730 10.470 0 0 0

[OUTFALLS]
;;Name Elev Type Stage Data Gated RouteTo
O_134_1 377.350 FREE NO
O_135 382.470 FREE NO
O_156 378.180 FREE NO
O_77 377.580 FREE NO

[CONDUITS]
;;Name FromNode ToNode Length Roughness InOffset OutOffset InitFlow MaxFlow
C_1 J_77 O_77 236.000 0.013 0.0000 0.0000 0 0
C_2 J_76 J_77 155.000 0.013 0.0000 0.0000 0 0
C_3 J_75 J_77 408.000 0.013 0.0000 0.0000 0 0
C_4 IN_82 J_76 5.000 0.013 0.0000 0.0000 0 0
C_5 IN_80 J_75 5.000 0.013 0.0000 0.0000 0 0
C_6 IN_81 J_75 5.000 0.013 0.0000 0.0000 0 0
C_7 IN_79 J_75 5.000 0.013 0.0000 0.0000 0 0
C_8 J_74 J_75 1008.000 0.013 0.0000 0.0000 0 0
C_9 J_72 J_74 460.000 0.013 0.0000 0.0000 0 0
C_10 J_71_8 J_72 152.000 0.013 0.0000 0.0000 0 0
C_11 J_71_7 J_71_8 40.000 0.013 0.0000 0.0000 0 0
C_12 IN_77_3 J_71_5 5.000 0.013 0.0000 0.0000 0 0
C_13 J_69 J_71 1195.000 0.013 0.0000 0.0000 0 0
C_14 IN_76_42 J_70_3 5.000 0.013 0.0000 0.0000 0 0
C_15 IN_76_41 J_70_3 5.000 0.013 0.0000 0.0000 0 0
C_16 J_70_2 J_70_3 418.000 0.013 0.0000 0.0000 0 0
C_17 J_70 J_70_2 49.000 0.013 0.0000 0.0000 0 0
C_18 IN_76_2 J_70 5.000 0.013 0.0000 0.0000 0 0
C_19 IN_76 J_70 5.000 0.013 0.0000 0.0000 0 0
C_20 IN_67 J_65 5.000 0.013 0.0000 0.0000 0 0
C_21 IN_66 J_65 5.000 0.013 0.0000 0.0000 0 0
C_22 J_63 J_65 330.000 0.013 0.0000 0.0000 0 0
C_23 IN_62 J_63 5.000 0.013 0.0000 0.0000 0 0
C_24 IN_63 J_63 5.000 0.013 0.0000 0.0000 0 0
C_25 J_62 J_63 619.000 0.013 0.0000 0.0000 0 0
C_26 J_61 J_62 216.000 0.013 0.0000 0.0000 0 0
C_27 J_57 J_62 420.000 0.013 0.0000 0.0000 0 0
C_28 IN_60 J_61 5.000 0.013 0.0000 0.0000 0 0
C_29 IN_61 J_61 5.000 0.013 0.0000 0.0000 0 0
C_30 J_54 J_57 45.000 0.013 0.0000 0.0000 0 0
C_31 IN_57 J_57 5.000 0.013 0.0000 0.0000 0 0
C_32 IN_54 J_54 5.000 0.013 0.0000 0.0000 0 0
C_33 IN_55 J_54 5.000 0.013 0.0000 0.0000 0 0
C_34 J_53 J_54 496.000 0.013 0.0000 0.0000 0 0
C_35 J_52 J_53 134.000 0.013 0.0000 0.0000 0 0
C_36 J_51 J_53 538.000 0.013 0.0000 0.0000 0 0
C_37 IN_52 J_52 5.000 0.013 0.0000 0.0000 0 0
C_38 IN_52_1 J_52 5.000 0.013 0.0000 0.0000 0 0
C_39 IN_53 J_52 5.000 0.013 0.0000 0.0000 0 0
C_40 J_50 J_51 470.000 0.013 0.0000 0.0000 0 0
C_41 J_49 J_51 38.000 0.013 0.1038 0.0000 0 0
C_42 J_42 J_51 770.000 0.013 0.0000 0.0000 0 0
C_43 IN_51 J_50 5.000 0.013 0.0000 0.0000 0 0
C_44 J_48 J_49 540.000 0.013 0.0000 0.0000 0 0
C_45 IN_50 J_49 5.000 0.013 0.0000 0.0000 0 0
C_46 J_47 J_48 14.000 0.013 0.0000 0.0000 0 0
C_47 J_46 J_48 750.000 0.013 0.0000 0.0000 0 0
C_48 IN_49 J_47 5.000 0.013 0.0000 0.0000 0 0
C_49 IN_48 J_47 5.000 0.013 0.0000 0.0000 0 0
C_50 IN_47 J_46 5.000 0.013 0.0000 0.0000 0 0
C_51 J_45 J_46 50.000 0.013 0.0000 0.0000 0 0
C_52 IN_46 J_45 5.000 0.013 0.0000 0.0000 0 0
C_53 J_44 J_45 455.000 0.013 0.0000 0.0000 0 0
C_54 J_43 J_44 476.000 0.013 0.0000 0.0000 0 0
C_55 IN_45 J_44 5.000 0.013 0.0000 0.0000 0 0
C_56 IN_44 J_43 5.000 0.013 0.0000 0.0000 0 0
C_57 J_41 J_42 107.000 0.013 0.1807 0.0000 0 0
C_58 J_39 J_42 106.000 0.013 0.0000 0.0000 0 0
C_59 IN_43_1 J_41 5.000 0.013 0.0000 0.0000 0 0
C_60 IN_43 J_41 5.000 0.013 0.0000 0.0000 0 0
C_61 J_40 J_41 531.000 0.013 0.0000 0.0000 0 0
C_62 IN_42 J_40 5.000 0.013 0.0000 0.0000 0 0
C_63 J_38 J_39 156.000 0.013 0.0000 0.0000 0 0
C_64 J_37 J_39 156.000 0.013 0.0000 0.0000 0 0
C_65 IN_40 J_38 5.000 0.013 0.0000 0.0000 0 0
C_66 IN_41 J_38 5.000 0.013 0.0000 0.0000 0 0
C_67 J_35 J_37 439.000 0.013 0.0000 0.0000 0 0
C_68 J_31 J_35 131.000 0.013 0.1531 0.0000 0 0
C_69 J_34 J_35 304.000 0.013 0.0000 0.0000 0 0
C_70 IN_38 J_35 5.000 0.013 0.0000 0.0000 0 0
C_71 J_33 J_34 96.000 0.013 0.0000 0.0000 0 0
C_72 J_32 J_34 278.000 0.013 0.0000 0.0000 0 0
C_73 IN_37 J_33 5.000 0.013 0.0000 0.0000 0 0
C_74 IN_35 J_32 5.000 0.013 0.0000 0.0000 0 0
C_75 IN_36 J_32 5.000 0.013 0.0000 0.0000 0 0
C_76 J_30 J_31 109.000 0.013 0.0000 0.0000 0 0
C_77 J_29 J_31 512.000 0.013 0.0000 0.0000 0 0
C_78 IN_34 J_30 5.000 0.013 0.0000 0.0000 0 0
C_79 J_28 J_29 113.000 0.013 0.0000 0.0000 0 0
C_80 J_26 J_29 189.000 0.013 0.0000 0.0000 0 0
C_81 J_15 J_29 630.000 0.013 0.0000 0.0000 0 0
C_82 IN_33 J_28 5.000 0.013 0.0000 0.0000 0 0
C_83 J_27_1 J_28 350.000 0.013 0.0000 0.0000 0 0
C_84 IN_32 J_27_1 5.000 0.013 0.0000 0.0000 0 0
C_85 J_27 J_27_1 176.000 0.013 0.0000 0.0000 0 0
C_86 IN_31 J_27 5.000 0.013 0.0000 0.0000 0 0
C_87 J_26_1 J_27 166.000 0.013 0.6366 0.0000 0 0
C_88 IN_30_1 J_26_1 5.000 0.013 0.0000 0.0000 0 0
C_89 J_25 J_26 227.000 0.013 0.0000 0.0000 0 0
C_90 IN_30 J_26 5.000 0.013 0.0000 0.0000 0 0
C_91 J_24 J_25 73.000 0.013 0.0000 0.0000 0 0
C_92 J_23 J_25 114.000 0.013 0.0000 0.0000 0 0
C_93 IN_28 J_24 5.000 0.013 0.0000 0.0000 0 0
C_94 IN_29 J_24 5.000 0.013 0.0000 0.0000 0 0
C_95 J_22 J_23 146.000 0.013 0.0000 0.0000 0 0
C_96 J_21 J_23 251.000 0.013 0.0000 0.0000 0 0
C_97 IN_26 J_22 5.000 0.013 0.0000 0.0000 0 0
C_98 IN_27 J_22 5.000 0.013 0.0000 0.0000 0 0
C_99 J_20 J_21 658.000 0.013 0.0000 0.0000 0 0
C_100 IN_25 J_21 5.000 0.013 0.0000 0.0000 0 0
C_101 J_19 J_20 72.000 0.013 0.0000 0.0000 0 0
C_102 J_18 J_20 230.000 0.013 0.0000 0.0000 0 0
C_103 IN_23 J_19 5.000 0.013 0.0000 0.0000 0 0
C_104 IN_24 J_19 5.000 0.013 0.0000 0.0000 0 0
C_105 J_17 J_18 183.000 0.013 0.0000 0.0000 0 0
C_106 J_16 J_18 649.000 0.013 0.0000 0.0000 0 0
C_107 IN_22 J_17 5.000 0.013 0.0000 0.0000 0 0
C_108 IN_21 J_17 5.000 0.013 0.0000 0.0000 0 0
C_109 IN_19 J_16 5.000 0.013 0.0000 0.0000 0 0
C_110 IN_20 J_16 5.000 0.013 0.0000 0.0000 0 0
C_111 J_14 J_15 76.000 0.013 0.0000 0.0000 0 0
C_112 J_13 J_15 264.000 0.013 0.0000 0.0000 0 0
C_113 J_11 J_15 50.000 0.013 0.0000 0.0000 0 0
C_114 IN_18 J_14 5.000 0.013 0.0000 0.0000 0 0
C_115 IN_17 J_13 5.000 0.013 0.0000 0.0000 0 0
C_116 J_12 J_13 356.000 0.013 0.0000 0.0000 0 0
C_117 IN_16 J_12 5.000 0.013 0.0000 0.0000 0 0
C_118 IN_15 J_11 5.000 0.013 0.0000 0.0000 0 0
C_119 J_9 J_11 683.000 0.013 0.0000 0.0000 0 0
C_120 J_8 J_9 291.000 0.013 0.0000 0.0000 0 0
C_121 J_7_1 J_9 30.000 0.013 0.0230 0.0000 0 0
C_122 IN_12 J_8 5.000 0.013 0.0000 0.0000 0 0
C_123 IN_13 J_8 5.000 0.013 0.0000 0.0000 0 0
C_124 J_7 J_7_1 300.000 0.013 0.0000 0.0000 0 0
C_125 J_6_1 J_7_1 32.000 0.013 0.0000 0.0000 0 0
C_126 IN_11 J_7 5.000 0.013 0.0000 0.0000 0 0
C_127 IN_10 J_6_1 5.000 0.013 0.0000 0.0000 0 0
C_128 J_6 J_6_1 606.000 0.013 0.0000 0.0000 0 0
C_129 IN_9 J_6 5.000 0.013 0.0000 0.0000 0 0
C_130 J_5 J_6 519.000 0.013 0.0000 0.0000 0 0
C_131 J_3 J_6 826.000 0.013 0.0000 0.0000 0 0
C_132 IN_8 J_5 5.000 0.013 0.0000 0.0000 0 0
C_133 J_2 J_3 943.000 0.013 0.0000 0.0000 0 0
C_134 IN_5 J_3 5.000 0.013 0.0000 0.0000 0 0
C_135 J_1 J_2 176.000 0.013 0.0000 0.0000 0 0
C_136 IN_3 J_2 5.000 0.013 0.0000 0.0000 0 0
C_137 IN_1 J_1 5.000 0.013 0.0000 0.0000 0 0
C_138 IN_2 J_1 5.000 0.013 0.0000 0.0000 0 0
C_139 J_132_1 J_133 67.000 0.013 0.0000 0.0000 0 0
C_140 J_132 J_133 437.000 0.013 0.0000 0.0000 0 0
C_141 IN_160 J_132_1 5.000 0.013 0.0000 0.0000 0 0
C_142 J_131 J_132 541.000 0.013 0.2441 0.0000 0 0
C_143 J_100 J_132 376.000 0.013 0.0000 0.0000 0 0
C_144 IN_159 J_131 5.000 0.013 0.0000 0.0000 0 0
C_145 J_130 J_131 294.000 0.013 0.0000 0.0000 0 0
C_146 J_129 J_130 284.000 0.013 0.0000 0.0000 0 0
C_147 J_121 J_130 93.000 0.013 0.0000 0.0000 0 0
C_148 IN_157 J_129 5.000 0.013 0.0000 0.0000 0 0
C_149 IN_158 J_129 5.000 0.013 0.0000 0.0000 0 0
C_150 J_128 J_129 629.000 0.013 0.0000 0.0000 0 0
C_151 J_127 J_128 700.000 0.013 0.0000 0.0000 0 0
C_152 IN_156 J_128 5.000 0.013 0.0000 0.0000 0 0
C_153 IN_155 J_128 5.000 0.013 0.0000 0.0000 0 0
C_154 J_126 J_127 270.000 0.013 0.0000 0.0000 0 0
C_155 J_124 J_127 662.000 0.013 0.0000 0.0000 0 0
C_156 J_125 J_126 105.000 0.013 0.0000 0.0000 0 0
C_157 IN_153 J_126 5.000 0.013 0.0000 0.0000 0 0
C_158 IN_154 J_126 5.000 0.013 0.0000 0.0000 0 0
C_159 IN_152 J_125 5.000 0.013 0.0000 0.0000 0 0
C_160 J_123 J_124 394.000 0.013 0.0000 0.0000 0 0
C_161 IN_151 J_124 5.000 0.013 0.0000 0.0000 0 0
C_162 J_122 J_123 26.000 0.013 0.0000 0.0000 0 0
C_163 IN_150 J_123 5.000 0.013 0.0000 0.0000 0 0
C_164 IN_148 J_122 5.000 0.013 0.0000 0.0000 0 0
C_165 IN_149 J_122 5.000 0.013 0.0000 0.0000 0 0
C_166 J_120 J_121 178.000 0.013 0.0000 0.0000 0 0
C_167 IN_147 J_121 5.000 0.013 0.0000 0.0000 0 0
C_168 J_119 J_121 479.000 0.013 0.0000 0.0000 0 0
C_169 IN_146 J_120 5.000 0.013 0.0000 0.0000 0 0
C_170 J_118 J_119 188.000 0.013 0.0000 0.0000 0 0
C_171 J_117 J_119 813.000 0.013 0.0000 0.0000 0 0
C_172 IN_143 J_118 5.000 0.013 0.0000 0.0000 0 0
C_173 IN_144 J_118 5.000 0.013 0.0000 0.0000 0 0
C_174 IN_145 J_118 5.000 0.013 0.0000 0.0000 0 0
C_175 J_111 J_117 108.000 0.013 0.5108 0.0000 0 0
C_176 J_115 J_117 1329.000 0.013 0.0000 0.0000 0 0
C_177 J_113 J_113_1 18.000 0.013 0.0000 0.0000 0 0
C_178 IN_136 J_113_1 5.000 0.013 0.0000 0.0000 0 0
C_179 IN_135 J_113 5.000 0.013 0.0000 0.0000 0 0
C_180 J_112 J_113 572.000 0.013 0.0000 0.0000 0 0
C_181 IN_134 J_112 5.000 0.013 0.0000 0.0000 0 0
C_182 IN_133 J_112 5.000 0.013 0.0000 0.0000 0 0
C_183 IN_131 J_111 5.000 0.013 0.0000 0.0000 0 0
C_184 IN_132 J_111 5.000 0.013 0.0000 0.0000 0 0
C_185 J_98 J_100 656.000 0.013 0.0000 0.0000 0 0
C_186 IN_116_1 J_98 5.000 0.013 0.0000 0.0000 0 0
C_187 J_96 J_98 338.000 0.013 0.0000 0.0000 0 0
C_188 IN_114 J_96 5.000 0.013 0.0000 0.0000 0 0
C_189 IN_115 J_96 5.000 0.013 0.0000 0.0000 0 0
C_190 J_95_4 J_96 554.000 0.013 0.0000 0.0000 0 0
C_191 J_95 J_95_4 944.000 0.013 0.0000 0.0000 0 0
C_192 J_95_3 J_95_4 145.000 0.013 0.0000 0.0000 0 0
C_193 J_95_2 J_95_3 132.000 0.013 0.0000 0.0000 0 0
C_194 J_95_15 J_95_2 293.000 0.013 0.0000 0.0000 0 0
C_195 IN_113 J_95_2 5.000 0.013 0.0000 0.0000 0 0
C_196 IN_112_2 J_95_2 5.000 0.013 0.0000 0.0000 0 0
C_197 IN_112_1 J_95_15 5.000 0.013 0.0000 0.0000 0 0
C_198 J_94_4 J_95 366.000 0.013 0.0000 0.0000 0 0
C_199 IN_111 J_95 5.000 0.013 0.0000 0.0000 0 0
C_200 J_94_1 J_94_4 330.000 0.013 0.0000 0.0000 0 0
C_201 J_94_2 J_94_4 43.000 0.013 0.0000 0.0000 0 0
C_202 IN_110_1 J_94_2 5.000 0.013 0.0000 0.0000 0 0
C_203 J_94 J_94_1 18.000 0.013 1.8618 0.0000 0 0
C_204 J_93 J_94 41.000 0.013 0.0000 0.0000 0 0
C_205 IN_109 J_94 5.000 0.013 0.0000 0.0000 0 0
C_206 J_92 J_93 984.000 0.013 0.0000 0.0000 0 0
C_207 IN_107 J_93 5.000 0.013 0.0000 0.0000 0 0
C_208 IN_108 J_93 5.000 0.013 0.0000 0.0000 0 0
C_209 J_90_1 J_92 469.000 0.013 0.0000 0.0000 0 0
C_210 J_90 J_90_1 71.000 0.013 0.0000 0.0000 0 0
C_211 IN_105 J_90_1 5.000 0.013 0.0000 0.0000 0 0
C_212 IN_103 J_90 5.000 0.013 0.0000 0.0000 0 0
C_213 IN_104 J_90 5.000 0.013 0.0000 0.0000 0 0
C_214 J_88 J_88_1 176.000 0.013 0.0000 0.0000 0 0
C_215 J_83_1 J_88_1 961.000 0.013 0.0000 0.0000 0 0
C_216 J_87 J_88_1 970.000 0.013 0.0000 0.0000 0 0
C_217 IN_101 J_88_1 5.000 0.013 0.0000 0.0000 0 0
C_218 IN_100_1 J_88_1 5.000 0.013 0.0000 0.0000 0 0
C_219 IN_100 J_88 5.000 0.013 0.0000 0.0000 0 0
C_220 J_85 J_87 1292.000 0.013 0.0000 0.0000 0 0
C_221 J_86 J_87 575.000 0.013 0.0000 0.0000 0 0
C_222 IN_99 J_86 5.000 0.013 0.0000 0.0000 0 0
C_223 IN_98 J_86 5.000 0.013 0.0000 0.0000 0 0
C_224 IN_97 J_85 5.000 0.013 0.0000 0.0000 0 0
C_225 IN_94 J_83_1 5.000 0.013 0.0000 0.0000 0 0
C_226 J_83 J_83_1 46.000 0.013 0.0000 0.0000 0 0
C_227 J_82 J_83 509.000 0.013 0.0000 0.0000 0 0
C_228 IN_93 J_83 5.000 0.013 0.0000 0.0000 0 0
C_229 IN_92 J_83 5.000 0.013 0.0000 0.0000 0 0
C_230 IN_90 J_82 5.000 0.013 0.0000 0.0000 0 0
C_231 IN_91 J_82 5.000 0.013 0.0000 0.0000 0 0
C_232 J_80 J_81 802.000 0.013 0.0000 0.0000 0 0
C_233 IN_87 J_81 5.000 0.013 0.0000 0.0000 0 0
C_234 IN_88 J_81 5.000 0.013 0.0000 0.0000 0 0
C_235 J_79 J_80 157.000 0.013 0.0000 0.0000 0 0
C_236 IN_86 J_79 5.000 0.013 0.0000 0.0000 0 0
C_237 IN_85 J_79 5.000 0.013 0.0000 0.0000 0 0
C_238 IN_83 J_78 5.000 0.013 0.0000 0.0000 0 0
C_239 J_134_1 O_134_1 155.000 0.013 0.0000 0.0000 0 0
C_240 IN_161 J_134_1 5.000 0.013 0.0000 0.0000 0 0
C_241 J_135 O_135 474.000 0.013 0.0000 0.0000 0 0
C_242 IN_163 J_135 5.000 0.013 0.0000 0.0000 0 0
C_243 J_156 O_156 304.000 0.013 0.0000 0.0000 0 0
C_244 IN_192 J_156 5.000 0.013 0.0000 0.0000 0 0
C_245 IN_193 J_156 5.000 0.013 0.0000 0.0000 0 0
C_246 J_155 J_156 1084.000 0.013 0.0000 0.0000 0 0
C_247 IN_191 J_155 5.000 0.013 0.0000 0.0000 0 0
C_248 J_154 J_155 63.000 0.013 0.0000 0.0000 0 0
C_249 J_153_1 J_154 279.000 0.013 0.0000 0.0000 0 0
C_250 IN_189 J_154 5.000 0.013 0.0000 0.0000 0 0
C_251 IN_190 J_154 5.000 0.013 0.0000 0.0000 0 0
C_252 J_145 J_153_1 820.000 0.013 0.0000 0.0000 0 0
C_253 J_151 J_153_1 35.000 0.013 0.0000 0.0000 0 0
C_254 J_153 J_153_1 509.000 0.013 0.1309 0.0000 0 0
C_255 J_152 J_153 328.000 0.013 0.0000 0.0000 0 0
C_256 IN_188 J_153 5.000 0.013 0.0000 0.0000 0 0
C_257 IN_185 J_152 5.000 0.013 0.0000 0.0000 0 0
C_258 IN_186 J_152 5.000 0.013 0.0000 0.0000 0 0
C_259 IN_187 J_152 5.000 0.013 0.0000 0.0000 0 0
C_260 J_150 J_151 132.000 0.013 0.0000 0.0000 0 0
C_261 IN_183 J_151 5.000 0.013 0.0000 0.0000 0 0
C_262 IN_184 J_151 5.000 0.013 0.0000 0.0000 0 0
C_263 IN_182 J_150 5.000 0.013 0.0000 0.0000 0 0
C_264 J_149 J_150 551.000 0.013 0.0000 0.0000 0 0
C_265 IN_181 J_149 5.000 0.013 0.0000 0.0000 0 0
C_266 J_147 J_149 221.000 0.013 0.3621 0.0000 0 0
C_267 J_148 J_149 359.000 0.013 0.0000 0.0000 0 0
C_268 IN_180 J_148 5.000 0.013 0.0000 0.0000 0 0
C_269 IN_179 J_147 5.000 0.013 0.0000 0.0000 0 0
C_270 J_146 J_147 210.000 0.013 0.0000 0.0000 0 0
C_271 IN_178 J_146 5.000 0.013 0.0000 0.0000 0 0
C_272 J_144 J_145 128.000 0.013 0.0000 0.0000 0 0
C_273 J_143 J_145 329.000 0.013 0.0000 0.0000 0 0
C_274 IN_177 J_145 5.000 0.013 0.0000 0.0000 0 0
C_275 IN_175 J_144 5.000 0.013 0.0000 0.0000 0 0
C_276 IN_176 J_144 5.000 0.013 0.0000 0.0000 0 0
C_277 J_142 J_143 255.000 0.013 0.0000 0.0000 0 0
C_278 J_141 J_143 721.000 0.013 0.0000 0.0000 0 0
C_279 IN_174 J_142 5.000 0.013 0.0000 0.0000 0 0
C_280 IN_173 J_141 5.000 0.013 0.0000 0.0000 0 0
C_281 IN_172 J_141 5.000 0.013 0.0000 0.0000 0 0
C_282 J_140 J_141 213.000 0.013 0.0000 0.0000 0 0
C_283 J_138 J_141 812.000 0.013 0.0000 0.0000 0 0
C_284 IN_171 J_140 5.000 0.013 0.0000 0.0000 0 0
C_285 J_139 J_140 63.000 0.013 0.0000 0.0000 0 0
C_286 IN_169 J_139 5.000 0.013 0.0000 0.0000 0 0
C_287 IN_170 J_139 5.000 0.013 0.0000 0.0000 0 0
C_288 IN_168 J_138 5.000 0.013 0.0000 0.0000 0 0
C_289 IN_167 J_138 5.000 0.013 0.0000 0.0000 0 0

[XSECTIONS]
;;Link Shape Geom1 Geom2 Geom3 Geom4 Barrels Culvert
C_1 CIRCULAR 4.500 0 0 0 1
C_2 CIRCULAR 1.250 0 0 0 1
C_3 CIRCULAR 4.500 0 0 0 1
C_4 CIRCULAR 2.000 0 0 0 1
C_5 CIRCULAR 2.000 0 0 0 1
C_6 CIRCULAR 2.000 0 0 0 1
C_7 CIRCULAR 2.000 0 0 0 1
C_8 CIRCULAR 4.500 0 0 0 1
C_9 CIRCULAR 4.500 0 0 0 1
C_10 CIRCULAR 1.500 0 0 0 1
C_11 CIRCULAR 1.500 0 0 0 1
C_12 CIRCULAR 2.000 0 0 0 1
C_13 CIRCULAR 4.500 0 0 0 1
C_14 CIRCULAR 2.000 0 0 0 1
C_15 CIRCULAR 2.000 0 0 0 1
C_16 CIRCULAR 1.500 0 0 0 1
C_17 CIRCULAR 1.500 0 0 0 1
C_18 CIRCULAR 2.000 0 0 0 1
C_19 CIRCULAR 2.000 0 0 0 1
C_20 CIRCULAR 2.000 0 0 0 1
C_21 CIRCULAR 2.000 0 0 0 1
C_22 CIRCULAR 4.500 0 0 0 1
C_23 CIRCULAR 2.000 0 0 0 1
C_24 CIRCULAR 2.000 0 0 0 1
C_25 CIRCULAR 4.500 0 0 0 1
C_26 CIRCULAR 2.500 0 0 0 1
C_27 CIRCULAR 4.500 0 0 0 1
C_28 CIRCULAR 2.000 0 0 0 1
C_29 CIRCULAR 2.000 0 0 0 1
C_30 CIRCULAR 4.500 0 0 0 1
C_31 CIRCULAR 2.000 0 0 0 1
C_32 CIRCULAR 2.000 0 0 0 1
C_33 CIRCULAR 2.000 0 0 0 1
C_34 CIRCULAR 4.000 0 0 0 1